*SPEF "ieee 1481-1999"
*DESIGN "wrapped_rgb_mixer"
*DATE "11:11:11 Fri 11 11, 1111"
*VENDOR "OpenRCX"
*PROGRAM "Parallel Extraction"
*VERSION "1.0"
*DESIGN_FLOW "NAME_SCOPE LOCAL" "PIN_CAP NONE"
*DIVIDER /
*DELIMITER :
*BUS_DELIMITER []
*T_UNIT 1 NS
*C_UNIT 1 PF
*R_UNIT 1 OHM
*L_UNIT 1 HENRY

*NAME_MAP
*1 active
*2 io_in[0]
*3 io_in[10]
*4 io_in[11]
*5 io_in[12]
*6 io_in[13]
*7 io_in[14]
*8 io_in[15]
*9 io_in[16]
*10 io_in[17]
*11 io_in[18]
*12 io_in[19]
*13 io_in[1]
*14 io_in[20]
*15 io_in[21]
*16 io_in[22]
*17 io_in[23]
*18 io_in[24]
*19 io_in[25]
*20 io_in[26]
*21 io_in[27]
*22 io_in[28]
*23 io_in[29]
*24 io_in[2]
*25 io_in[30]
*26 io_in[31]
*27 io_in[32]
*28 io_in[33]
*29 io_in[34]
*30 io_in[35]
*31 io_in[36]
*32 io_in[37]
*33 io_in[3]
*34 io_in[4]
*35 io_in[5]
*36 io_in[6]
*37 io_in[7]
*38 io_in[8]
*39 io_in[9]
*40 io_oeb[0]
*41 io_oeb[10]
*42 io_oeb[11]
*43 io_oeb[12]
*44 io_oeb[13]
*45 io_oeb[14]
*46 io_oeb[15]
*47 io_oeb[16]
*48 io_oeb[17]
*49 io_oeb[18]
*50 io_oeb[19]
*51 io_oeb[1]
*52 io_oeb[20]
*53 io_oeb[21]
*54 io_oeb[22]
*55 io_oeb[23]
*56 io_oeb[24]
*57 io_oeb[25]
*58 io_oeb[26]
*59 io_oeb[27]
*60 io_oeb[28]
*61 io_oeb[29]
*62 io_oeb[2]
*63 io_oeb[30]
*64 io_oeb[31]
*65 io_oeb[32]
*66 io_oeb[33]
*67 io_oeb[34]
*68 io_oeb[35]
*69 io_oeb[36]
*70 io_oeb[37]
*71 io_oeb[3]
*72 io_oeb[4]
*73 io_oeb[5]
*74 io_oeb[6]
*75 io_oeb[7]
*76 io_oeb[8]
*77 io_oeb[9]
*78 io_out[0]
*79 io_out[10]
*80 io_out[11]
*81 io_out[12]
*82 io_out[13]
*83 io_out[14]
*84 io_out[15]
*85 io_out[16]
*86 io_out[17]
*87 io_out[18]
*88 io_out[19]
*89 io_out[1]
*90 io_out[20]
*91 io_out[21]
*92 io_out[22]
*93 io_out[23]
*94 io_out[24]
*95 io_out[25]
*96 io_out[26]
*97 io_out[27]
*98 io_out[28]
*99 io_out[29]
*100 io_out[2]
*101 io_out[30]
*102 io_out[31]
*103 io_out[32]
*104 io_out[33]
*105 io_out[34]
*106 io_out[35]
*107 io_out[36]
*108 io_out[37]
*109 io_out[3]
*110 io_out[4]
*111 io_out[5]
*112 io_out[6]
*113 io_out[7]
*114 io_out[8]
*115 io_out[9]
*116 la1_data_in[0]
*117 la1_data_in[10]
*118 la1_data_in[11]
*119 la1_data_in[12]
*120 la1_data_in[13]
*121 la1_data_in[14]
*122 la1_data_in[15]
*123 la1_data_in[16]
*124 la1_data_in[17]
*125 la1_data_in[18]
*126 la1_data_in[19]
*127 la1_data_in[1]
*128 la1_data_in[20]
*129 la1_data_in[21]
*130 la1_data_in[22]
*131 la1_data_in[23]
*132 la1_data_in[24]
*133 la1_data_in[25]
*134 la1_data_in[26]
*135 la1_data_in[27]
*136 la1_data_in[28]
*137 la1_data_in[29]
*138 la1_data_in[2]
*139 la1_data_in[30]
*140 la1_data_in[31]
*141 la1_data_in[3]
*142 la1_data_in[4]
*143 la1_data_in[5]
*144 la1_data_in[6]
*145 la1_data_in[7]
*146 la1_data_in[8]
*147 la1_data_in[9]
*148 la1_data_out[0]
*149 la1_data_out[10]
*150 la1_data_out[11]
*151 la1_data_out[12]
*152 la1_data_out[13]
*153 la1_data_out[14]
*154 la1_data_out[15]
*155 la1_data_out[16]
*156 la1_data_out[17]
*157 la1_data_out[18]
*158 la1_data_out[19]
*159 la1_data_out[1]
*160 la1_data_out[20]
*161 la1_data_out[21]
*162 la1_data_out[22]
*163 la1_data_out[23]
*164 la1_data_out[24]
*165 la1_data_out[25]
*166 la1_data_out[26]
*167 la1_data_out[27]
*168 la1_data_out[28]
*169 la1_data_out[29]
*170 la1_data_out[2]
*171 la1_data_out[30]
*172 la1_data_out[31]
*173 la1_data_out[3]
*174 la1_data_out[4]
*175 la1_data_out[5]
*176 la1_data_out[6]
*177 la1_data_out[7]
*178 la1_data_out[8]
*179 la1_data_out[9]
*180 la1_oenb[0]
*181 la1_oenb[10]
*182 la1_oenb[11]
*183 la1_oenb[12]
*184 la1_oenb[13]
*185 la1_oenb[14]
*186 la1_oenb[15]
*187 la1_oenb[16]
*188 la1_oenb[17]
*189 la1_oenb[18]
*190 la1_oenb[19]
*191 la1_oenb[1]
*192 la1_oenb[20]
*193 la1_oenb[21]
*194 la1_oenb[22]
*195 la1_oenb[23]
*196 la1_oenb[24]
*197 la1_oenb[25]
*198 la1_oenb[26]
*199 la1_oenb[27]
*200 la1_oenb[28]
*201 la1_oenb[29]
*202 la1_oenb[2]
*203 la1_oenb[30]
*204 la1_oenb[31]
*205 la1_oenb[3]
*206 la1_oenb[4]
*207 la1_oenb[5]
*208 la1_oenb[6]
*209 la1_oenb[7]
*210 la1_oenb[8]
*211 la1_oenb[9]
*214 wb_clk_i
*215 _000_
*216 _001_
*217 _002_
*218 _003_
*219 _004_
*220 _005_
*221 _006_
*222 _007_
*223 _008_
*224 _009_
*225 _010_
*226 _011_
*227 _012_
*228 _013_
*229 _014_
*230 _015_
*231 _016_
*232 _017_
*233 _018_
*234 _019_
*235 _020_
*236 _021_
*237 _022_
*238 _023_
*239 _024_
*240 _025_
*241 _026_
*242 _027_
*243 _028_
*244 _029_
*245 _030_
*246 _031_
*247 _032_
*248 _033_
*249 _034_
*250 _035_
*251 _036_
*252 _037_
*253 _038_
*254 _039_
*255 _040_
*256 _041_
*257 _042_
*258 _043_
*259 _044_
*260 _045_
*261 _046_
*262 _047_
*263 _048_
*264 _049_
*265 _050_
*266 _051_
*267 _052_
*268 _053_
*269 _054_
*270 _055_
*271 _056_
*272 _057_
*273 _058_
*274 _059_
*275 _060_
*276 _061_
*277 _062_
*278 _063_
*279 _064_
*280 _065_
*281 _066_
*282 _067_
*283 _068_
*284 _069_
*285 _070_
*286 _071_
*287 _072_
*288 _073_
*289 _074_
*290 _075_
*291 _076_
*292 _077_
*293 _078_
*294 _079_
*295 _080_
*296 _081_
*297 _082_
*298 _083_
*299 _084_
*300 _085_
*301 _086_
*302 _087_
*303 _088_
*304 _089_
*305 _090_
*306 _091_
*307 _092_
*308 _093_
*309 _094_
*310 _095_
*311 _096_
*312 _097_
*313 _098_
*314 _099_
*315 _100_
*316 _101_
*317 _102_
*318 _103_
*319 _104_
*320 _105_
*321 _106_
*322 _107_
*323 _108_
*324 _109_
*325 _110_
*326 _111_
*327 _112_
*328 _113_
*329 _114_
*330 _115_
*331 _116_
*332 _117_
*333 _118_
*334 _119_
*335 _120_
*336 _121_
*337 _122_
*338 _123_
*339 _124_
*340 _125_
*341 _126_
*342 _127_
*343 _128_
*344 _129_
*345 _130_
*346 _131_
*347 _132_
*348 _133_
*349 net1
*350 net10
*351 net100
*352 net101
*353 net102
*354 net103
*355 net104
*356 net105
*357 net106
*358 net107
*359 net108
*360 net109
*361 net11
*362 net12
*363 net13
*364 net14
*365 net15
*366 net16
*367 net17
*368 net18
*369 net19
*370 net2
*371 net20
*372 net21
*373 net22
*374 net23
*375 net24
*376 net25
*377 net26
*378 net27
*379 net28
*380 net29
*381 net3
*382 net30
*383 net31
*384 net32
*385 net33
*386 net34
*387 net35
*388 net36
*389 net37
*390 net38
*391 net39
*392 net4
*393 net40
*394 net41
*395 net42
*396 net43
*397 net44
*398 net45
*399 net46
*400 net47
*401 net48
*402 net49
*403 net5
*404 net50
*405 net51
*406 net52
*407 net53
*408 net54
*409 net55
*410 net56
*411 net57
*412 net58
*413 net59
*414 net6
*415 net60
*416 net61
*417 net62
*418 net63
*419 net64
*420 net65
*421 net66
*422 net67
*423 net68
*424 net69
*425 net7
*426 net70
*427 net71
*428 net72
*429 net73
*430 net74
*431 net75
*432 net76
*433 net77
*434 net78
*435 net79
*436 net8
*437 net80
*438 net81
*439 net82
*440 net83
*441 net84
*442 net85
*443 net86
*444 net87
*445 net88
*446 net89
*447 net9
*448 net90
*449 net91
*450 net92
*451 net93
*452 net94
*453 net95
*454 net96
*455 net97
*456 net98
*457 net99
*458 FILLER_0_109
*459 FILLER_0_113
*460 FILLER_0_125
*461 FILLER_0_137
*462 FILLER_0_141
*463 FILLER_0_15
*464 FILLER_0_153
*465 FILLER_0_157
*466 FILLER_0_161
*467 FILLER_0_167
*468 FILLER_0_169
*469 FILLER_0_181
*470 FILLER_0_193
*471 FILLER_0_197
*472 FILLER_0_209
*473 FILLER_0_221
*474 FILLER_0_225
*475 FILLER_0_237
*476 FILLER_0_24
*477 FILLER_0_249
*478 FILLER_0_253
*479 FILLER_0_265
*480 FILLER_0_277
*481 FILLER_0_281
*482 FILLER_0_29
*483 FILLER_0_293
*484 FILLER_0_3
*485 FILLER_0_305
*486 FILLER_0_309
*487 FILLER_0_321
*488 FILLER_0_333
*489 FILLER_0_337
*490 FILLER_0_349
*491 FILLER_0_361
*492 FILLER_0_41
*493 FILLER_0_53
*494 FILLER_0_57
*495 FILLER_0_69
*496 FILLER_0_81
*497 FILLER_0_85
*498 FILLER_0_97
*499 FILLER_10_109
*500 FILLER_10_11
*501 FILLER_10_131
*502 FILLER_10_139
*503 FILLER_10_141
*504 FILLER_10_153
*505 FILLER_10_165
*506 FILLER_10_17
*507 FILLER_10_177
*508 FILLER_10_189
*509 FILLER_10_195
*510 FILLER_10_197
*511 FILLER_10_209
*512 FILLER_10_221
*513 FILLER_10_233
*514 FILLER_10_245
*515 FILLER_10_25
*516 FILLER_10_251
*517 FILLER_10_253
*518 FILLER_10_265
*519 FILLER_10_277
*520 FILLER_10_289
*521 FILLER_10_29
*522 FILLER_10_3
*523 FILLER_10_301
*524 FILLER_10_307
*525 FILLER_10_330
*526 FILLER_10_342
*527 FILLER_10_354
*528 FILLER_10_362
*529 FILLER_10_41
*530 FILLER_10_53
*531 FILLER_10_65
*532 FILLER_10_77
*533 FILLER_10_83
*534 FILLER_10_85
*535 FILLER_10_97
*536 FILLER_11_105
*537 FILLER_11_111
*538 FILLER_11_116
*539 FILLER_11_123
*540 FILLER_11_135
*541 FILLER_11_147
*542 FILLER_11_15
*543 FILLER_11_159
*544 FILLER_11_167
*545 FILLER_11_169
*546 FILLER_11_181
*547 FILLER_11_193
*548 FILLER_11_205
*549 FILLER_11_217
*550 FILLER_11_223
*551 FILLER_11_225
*552 FILLER_11_237
*553 FILLER_11_245
*554 FILLER_11_269
*555 FILLER_11_27
*556 FILLER_11_277
*557 FILLER_11_281
*558 FILLER_11_293
*559 FILLER_11_3
*560 FILLER_11_301
*561 FILLER_11_307
*562 FILLER_11_314
*563 FILLER_11_325
*564 FILLER_11_332
*565 FILLER_11_337
*566 FILLER_11_349
*567 FILLER_11_361
*568 FILLER_11_39
*569 FILLER_11_51
*570 FILLER_11_55
*571 FILLER_11_57
*572 FILLER_11_69
*573 FILLER_11_81
*574 FILLER_11_93
*575 FILLER_12_109
*576 FILLER_12_121
*577 FILLER_12_133
*578 FILLER_12_139
*579 FILLER_12_141
*580 FILLER_12_153
*581 FILLER_12_165
*582 FILLER_12_177
*583 FILLER_12_189
*584 FILLER_12_195
*585 FILLER_12_197
*586 FILLER_12_203
*587 FILLER_12_215
*588 FILLER_12_227
*589 FILLER_12_239
*590 FILLER_12_24
*591 FILLER_12_248
*592 FILLER_12_256
*593 FILLER_12_268
*594 FILLER_12_280
*595 FILLER_12_29
*596 FILLER_12_292
*597 FILLER_12_304
*598 FILLER_12_309
*599 FILLER_12_321
*600 FILLER_12_345
*601 FILLER_12_357
*602 FILLER_12_363
*603 FILLER_12_41
*604 FILLER_12_53
*605 FILLER_12_65
*606 FILLER_12_77
*607 FILLER_12_83
*608 FILLER_12_85
*609 FILLER_12_97
*610 FILLER_13_105
*611 FILLER_13_111
*612 FILLER_13_113
*613 FILLER_13_138
*614 FILLER_13_150
*615 FILLER_13_162
*616 FILLER_13_169
*617 FILLER_13_181
*618 FILLER_13_193
*619 FILLER_13_220
*620 FILLER_13_225
*621 FILLER_13_237
*622 FILLER_13_249
*623 FILLER_13_261
*624 FILLER_13_273
*625 FILLER_13_279
*626 FILLER_13_281
*627 FILLER_13_293
*628 FILLER_13_3
*629 FILLER_13_305
*630 FILLER_13_317
*631 FILLER_13_329
*632 FILLER_13_335
*633 FILLER_13_337
*634 FILLER_13_349
*635 FILLER_13_36
*636 FILLER_13_361
*637 FILLER_13_48
*638 FILLER_13_57
*639 FILLER_13_69
*640 FILLER_13_7
*641 FILLER_13_81
*642 FILLER_13_93
*643 FILLER_14_108
*644 FILLER_14_114
*645 FILLER_14_121
*646 FILLER_14_133
*647 FILLER_14_139
*648 FILLER_14_141
*649 FILLER_14_15
*650 FILLER_14_153
*651 FILLER_14_165
*652 FILLER_14_177
*653 FILLER_14_189
*654 FILLER_14_195
*655 FILLER_14_197
*656 FILLER_14_203
*657 FILLER_14_215
*658 FILLER_14_22
*659 FILLER_14_227
*660 FILLER_14_239
*661 FILLER_14_251
*662 FILLER_14_253
*663 FILLER_14_265
*664 FILLER_14_277
*665 FILLER_14_289
*666 FILLER_14_29
*667 FILLER_14_294
*668 FILLER_14_3
*669 FILLER_14_306
*670 FILLER_14_309
*671 FILLER_14_321
*672 FILLER_14_333
*673 FILLER_14_345
*674 FILLER_14_357
*675 FILLER_14_363
*676 FILLER_14_41
*677 FILLER_14_53
*678 FILLER_14_65
*679 FILLER_14_77
*680 FILLER_14_8
*681 FILLER_14_83
*682 FILLER_14_85
*683 FILLER_14_96
*684 FILLER_15_108
*685 FILLER_15_11
*686 FILLER_15_113
*687 FILLER_15_125
*688 FILLER_15_137
*689 FILLER_15_143
*690 FILLER_15_147
*691 FILLER_15_159
*692 FILLER_15_167
*693 FILLER_15_169
*694 FILLER_15_181
*695 FILLER_15_193
*696 FILLER_15_205
*697 FILLER_15_216
*698 FILLER_15_225
*699 FILLER_15_237
*700 FILLER_15_249
*701 FILLER_15_261
*702 FILLER_15_273
*703 FILLER_15_279
*704 FILLER_15_281
*705 FILLER_15_286
*706 FILLER_15_3
*707 FILLER_15_311
*708 FILLER_15_323
*709 FILLER_15_335
*710 FILLER_15_337
*711 FILLER_15_349
*712 FILLER_15_35
*713 FILLER_15_361
*714 FILLER_15_47
*715 FILLER_15_51
*716 FILLER_15_55
*717 FILLER_15_60
*718 FILLER_15_72
*719 FILLER_15_84
*720 FILLER_16_103
*721 FILLER_16_115
*722 FILLER_16_127
*723 FILLER_16_139
*724 FILLER_16_14
*725 FILLER_16_141
*726 FILLER_16_164
*727 FILLER_16_170
*728 FILLER_16_192
*729 FILLER_16_197
*730 FILLER_16_209
*731 FILLER_16_21
*732 FILLER_16_234
*733 FILLER_16_246
*734 FILLER_16_253
*735 FILLER_16_265
*736 FILLER_16_27
*737 FILLER_16_277
*738 FILLER_16_289
*739 FILLER_16_29
*740 FILLER_16_3
*741 FILLER_16_301
*742 FILLER_16_307
*743 FILLER_16_309
*744 FILLER_16_321
*745 FILLER_16_333
*746 FILLER_16_345
*747 FILLER_16_357
*748 FILLER_16_363
*749 FILLER_16_41
*750 FILLER_16_68
*751 FILLER_16_80
*752 FILLER_16_85
*753 FILLER_16_91
*754 FILLER_17_105
*755 FILLER_17_111
*756 FILLER_17_113
*757 FILLER_17_125
*758 FILLER_17_137
*759 FILLER_17_146
*760 FILLER_17_15
*761 FILLER_17_158
*762 FILLER_17_166
*763 FILLER_17_169
*764 FILLER_17_173
*765 FILLER_17_180
*766 FILLER_17_192
*767 FILLER_17_204
*768 FILLER_17_212
*769 FILLER_17_216
*770 FILLER_17_225
*771 FILLER_17_237
*772 FILLER_17_249
*773 FILLER_17_261
*774 FILLER_17_27
*775 FILLER_17_273
*776 FILLER_17_279
*777 FILLER_17_281
*778 FILLER_17_293
*779 FILLER_17_3
*780 FILLER_17_305
*781 FILLER_17_317
*782 FILLER_17_329
*783 FILLER_17_335
*784 FILLER_17_337
*785 FILLER_17_349
*786 FILLER_17_361
*787 FILLER_17_39
*788 FILLER_17_51
*789 FILLER_17_55
*790 FILLER_17_57
*791 FILLER_17_69
*792 FILLER_17_81
*793 FILLER_17_93
*794 FILLER_18_109
*795 FILLER_18_121
*796 FILLER_18_133
*797 FILLER_18_139
*798 FILLER_18_141
*799 FILLER_18_15
*800 FILLER_18_153
*801 FILLER_18_165
*802 FILLER_18_177
*803 FILLER_18_189
*804 FILLER_18_195
*805 FILLER_18_197
*806 FILLER_18_209
*807 FILLER_18_221
*808 FILLER_18_233
*809 FILLER_18_245
*810 FILLER_18_251
*811 FILLER_18_253
*812 FILLER_18_265
*813 FILLER_18_27
*814 FILLER_18_277
*815 FILLER_18_289
*816 FILLER_18_29
*817 FILLER_18_3
*818 FILLER_18_301
*819 FILLER_18_307
*820 FILLER_18_309
*821 FILLER_18_321
*822 FILLER_18_333
*823 FILLER_18_344
*824 FILLER_18_352
*825 FILLER_18_358
*826 FILLER_18_41
*827 FILLER_18_53
*828 FILLER_18_65
*829 FILLER_18_77
*830 FILLER_18_83
*831 FILLER_18_85
*832 FILLER_18_97
*833 FILLER_19_102
*834 FILLER_19_110
*835 FILLER_19_113
*836 FILLER_19_125
*837 FILLER_19_137
*838 FILLER_19_149
*839 FILLER_19_15
*840 FILLER_19_161
*841 FILLER_19_167
*842 FILLER_19_169
*843 FILLER_19_181
*844 FILLER_19_193
*845 FILLER_19_205
*846 FILLER_19_217
*847 FILLER_19_223
*848 FILLER_19_225
*849 FILLER_19_237
*850 FILLER_19_249
*851 FILLER_19_261
*852 FILLER_19_266
*853 FILLER_19_27
*854 FILLER_19_278
*855 FILLER_19_281
*856 FILLER_19_293
*857 FILLER_19_3
*858 FILLER_19_305
*859 FILLER_19_317
*860 FILLER_19_329
*861 FILLER_19_335
*862 FILLER_19_337
*863 FILLER_19_360
*864 FILLER_19_39
*865 FILLER_19_47
*866 FILLER_19_52
*867 FILLER_19_78
*868 FILLER_19_90
*869 FILLER_1_105
*870 FILLER_1_111
*871 FILLER_1_113
*872 FILLER_1_125
*873 FILLER_1_137
*874 FILLER_1_149
*875 FILLER_1_15
*876 FILLER_1_160
*877 FILLER_1_169
*878 FILLER_1_175
*879 FILLER_1_200
*880 FILLER_1_212
*881 FILLER_1_225
*882 FILLER_1_237
*883 FILLER_1_249
*884 FILLER_1_261
*885 FILLER_1_273
*886 FILLER_1_279
*887 FILLER_1_281
*888 FILLER_1_293
*889 FILLER_1_3
*890 FILLER_1_305
*891 FILLER_1_317
*892 FILLER_1_329
*893 FILLER_1_335
*894 FILLER_1_337
*895 FILLER_1_349
*896 FILLER_1_361
*897 FILLER_1_39
*898 FILLER_1_51
*899 FILLER_1_55
*900 FILLER_1_57
*901 FILLER_1_69
*902 FILLER_1_81
*903 FILLER_1_93
*904 FILLER_20_103
*905 FILLER_20_115
*906 FILLER_20_127
*907 FILLER_20_139
*908 FILLER_20_141
*909 FILLER_20_15
*910 FILLER_20_153
*911 FILLER_20_165
*912 FILLER_20_192
*913 FILLER_20_197
*914 FILLER_20_209
*915 FILLER_20_221
*916 FILLER_20_233
*917 FILLER_20_245
*918 FILLER_20_251
*919 FILLER_20_253
*920 FILLER_20_261
*921 FILLER_20_27
*922 FILLER_20_285
*923 FILLER_20_29
*924 FILLER_20_297
*925 FILLER_20_3
*926 FILLER_20_305
*927 FILLER_20_309
*928 FILLER_20_321
*929 FILLER_20_333
*930 FILLER_20_360
*931 FILLER_20_41
*932 FILLER_20_66
*933 FILLER_20_73
*934 FILLER_20_81
*935 FILLER_20_85
*936 FILLER_20_97
*937 FILLER_21_108
*938 FILLER_21_113
*939 FILLER_21_125
*940 FILLER_21_137
*941 FILLER_21_149
*942 FILLER_21_161
*943 FILLER_21_167
*944 FILLER_21_169
*945 FILLER_21_174
*946 FILLER_21_181
*947 FILLER_21_19
*948 FILLER_21_193
*949 FILLER_21_205
*950 FILLER_21_217
*951 FILLER_21_223
*952 FILLER_21_225
*953 FILLER_21_237
*954 FILLER_21_249
*955 FILLER_21_261
*956 FILLER_21_266
*957 FILLER_21_273
*958 FILLER_21_279
*959 FILLER_21_281
*960 FILLER_21_293
*961 FILLER_21_3
*962 FILLER_21_305
*963 FILLER_21_31
*964 FILLER_21_317
*965 FILLER_21_329
*966 FILLER_21_335
*967 FILLER_21_337
*968 FILLER_21_343
*969 FILLER_21_347
*970 FILLER_21_358
*971 FILLER_21_43
*972 FILLER_21_48
*973 FILLER_21_60
*974 FILLER_21_7
*975 FILLER_21_72
*976 FILLER_21_84
*977 FILLER_21_96
*978 FILLER_22_109
*979 FILLER_22_121
*980 FILLER_22_133
*981 FILLER_22_139
*982 FILLER_22_141
*983 FILLER_22_153
*984 FILLER_22_165
*985 FILLER_22_177
*986 FILLER_22_189
*987 FILLER_22_195
*988 FILLER_22_197
*989 FILLER_22_209
*990 FILLER_22_221
*991 FILLER_22_233
*992 FILLER_22_24
*993 FILLER_22_245
*994 FILLER_22_251
*995 FILLER_22_253
*996 FILLER_22_261
*997 FILLER_22_284
*998 FILLER_22_29
*999 FILLER_22_296
*1000 FILLER_22_309
*1001 FILLER_22_321
*1002 FILLER_22_333
*1003 FILLER_22_345
*1004 FILLER_22_357
*1005 FILLER_22_363
*1006 FILLER_22_41
*1007 FILLER_22_53
*1008 FILLER_22_65
*1009 FILLER_22_77
*1010 FILLER_22_83
*1011 FILLER_22_85
*1012 FILLER_22_97
*1013 FILLER_23_10
*1014 FILLER_23_105
*1015 FILLER_23_111
*1016 FILLER_23_113
*1017 FILLER_23_125
*1018 FILLER_23_137
*1019 FILLER_23_149
*1020 FILLER_23_161
*1021 FILLER_23_167
*1022 FILLER_23_169
*1023 FILLER_23_181
*1024 FILLER_23_199
*1025 FILLER_23_211
*1026 FILLER_23_22
*1027 FILLER_23_223
*1028 FILLER_23_225
*1029 FILLER_23_237
*1030 FILLER_23_249
*1031 FILLER_23_261
*1032 FILLER_23_265
*1033 FILLER_23_277
*1034 FILLER_23_281
*1035 FILLER_23_293
*1036 FILLER_23_3
*1037 FILLER_23_305
*1038 FILLER_23_317
*1039 FILLER_23_329
*1040 FILLER_23_335
*1041 FILLER_23_337
*1042 FILLER_23_34
*1043 FILLER_23_349
*1044 FILLER_23_361
*1045 FILLER_23_38
*1046 FILLER_23_42
*1047 FILLER_23_54
*1048 FILLER_23_57
*1049 FILLER_23_69
*1050 FILLER_23_81
*1051 FILLER_23_93
*1052 FILLER_24_106
*1053 FILLER_24_118
*1054 FILLER_24_130
*1055 FILLER_24_138
*1056 FILLER_24_141
*1057 FILLER_24_15
*1058 FILLER_24_153
*1059 FILLER_24_165
*1060 FILLER_24_181
*1061 FILLER_24_193
*1062 FILLER_24_197
*1063 FILLER_24_209
*1064 FILLER_24_216
*1065 FILLER_24_228
*1066 FILLER_24_240
*1067 FILLER_24_253
*1068 FILLER_24_265
*1069 FILLER_24_27
*1070 FILLER_24_277
*1071 FILLER_24_289
*1072 FILLER_24_29
*1073 FILLER_24_3
*1074 FILLER_24_301
*1075 FILLER_24_307
*1076 FILLER_24_309
*1077 FILLER_24_321
*1078 FILLER_24_33
*1079 FILLER_24_333
*1080 FILLER_24_345
*1081 FILLER_24_357
*1082 FILLER_24_363
*1083 FILLER_24_55
*1084 FILLER_24_67
*1085 FILLER_24_79
*1086 FILLER_24_83
*1087 FILLER_25_100
*1088 FILLER_25_113
*1089 FILLER_25_125
*1090 FILLER_25_137
*1091 FILLER_25_149
*1092 FILLER_25_15
*1093 FILLER_25_161
*1094 FILLER_25_167
*1095 FILLER_25_169
*1096 FILLER_25_179
*1097 FILLER_25_191
*1098 FILLER_25_203
*1099 FILLER_25_215
*1100 FILLER_25_220
*1101 FILLER_25_246
*1102 FILLER_25_258
*1103 FILLER_25_27
*1104 FILLER_25_270
*1105 FILLER_25_278
*1106 FILLER_25_281
*1107 FILLER_25_293
*1108 FILLER_25_3
*1109 FILLER_25_305
*1110 FILLER_25_317
*1111 FILLER_25_329
*1112 FILLER_25_33
*1113 FILLER_25_335
*1114 FILLER_25_337
*1115 FILLER_25_346
*1116 FILLER_25_358
*1117 FILLER_25_37
*1118 FILLER_25_49
*1119 FILLER_25_55
*1120 FILLER_25_57
*1121 FILLER_25_69
*1122 FILLER_25_77
*1123 FILLER_25_81
*1124 FILLER_25_88
*1125 FILLER_26_109
*1126 FILLER_26_121
*1127 FILLER_26_133
*1128 FILLER_26_139
*1129 FILLER_26_141
*1130 FILLER_26_153
*1131 FILLER_26_165
*1132 FILLER_26_177
*1133 FILLER_26_189
*1134 FILLER_26_195
*1135 FILLER_26_197
*1136 FILLER_26_209
*1137 FILLER_26_221
*1138 FILLER_26_233
*1139 FILLER_26_24
*1140 FILLER_26_245
*1141 FILLER_26_251
*1142 FILLER_26_253
*1143 FILLER_26_265
*1144 FILLER_26_277
*1145 FILLER_26_285
*1146 FILLER_26_29
*1147 FILLER_26_291
*1148 FILLER_26_303
*1149 FILLER_26_307
*1150 FILLER_26_309
*1151 FILLER_26_321
*1152 FILLER_26_333
*1153 FILLER_26_360
*1154 FILLER_26_41
*1155 FILLER_26_53
*1156 FILLER_26_65
*1157 FILLER_26_77
*1158 FILLER_26_83
*1159 FILLER_26_85
*1160 FILLER_26_97
*1161 FILLER_27_105
*1162 FILLER_27_111
*1163 FILLER_27_113
*1164 FILLER_27_125
*1165 FILLER_27_137
*1166 FILLER_27_14
*1167 FILLER_27_149
*1168 FILLER_27_161
*1169 FILLER_27_167
*1170 FILLER_27_169
*1171 FILLER_27_181
*1172 FILLER_27_193
*1173 FILLER_27_205
*1174 FILLER_27_217
*1175 FILLER_27_223
*1176 FILLER_27_225
*1177 FILLER_27_237
*1178 FILLER_27_249
*1179 FILLER_27_261
*1180 FILLER_27_273
*1181 FILLER_27_279
*1182 FILLER_27_281
*1183 FILLER_27_3
*1184 FILLER_27_308
*1185 FILLER_27_320
*1186 FILLER_27_332
*1187 FILLER_27_337
*1188 FILLER_27_348
*1189 FILLER_27_360
*1190 FILLER_27_39
*1191 FILLER_27_48
*1192 FILLER_27_57
*1193 FILLER_27_69
*1194 FILLER_27_7
*1195 FILLER_27_81
*1196 FILLER_27_93
*1197 FILLER_28_106
*1198 FILLER_28_11
*1199 FILLER_28_118
*1200 FILLER_28_130
*1201 FILLER_28_138
*1202 FILLER_28_141
*1203 FILLER_28_153
*1204 FILLER_28_165
*1205 FILLER_28_17
*1206 FILLER_28_173
*1207 FILLER_28_181
*1208 FILLER_28_193
*1209 FILLER_28_197
*1210 FILLER_28_209
*1211 FILLER_28_21
*1212 FILLER_28_221
*1213 FILLER_28_233
*1214 FILLER_28_245
*1215 FILLER_28_251
*1216 FILLER_28_253
*1217 FILLER_28_265
*1218 FILLER_28_27
*1219 FILLER_28_277
*1220 FILLER_28_286
*1221 FILLER_28_29
*1222 FILLER_28_293
*1223 FILLER_28_3
*1224 FILLER_28_304
*1225 FILLER_28_330
*1226 FILLER_28_342
*1227 FILLER_28_354
*1228 FILLER_28_362
*1229 FILLER_28_41
*1230 FILLER_28_65
*1231 FILLER_28_7
*1232 FILLER_28_77
*1233 FILLER_28_83
*1234 FILLER_29_108
*1235 FILLER_29_113
*1236 FILLER_29_125
*1237 FILLER_29_137
*1238 FILLER_29_149
*1239 FILLER_29_15
*1240 FILLER_29_161
*1241 FILLER_29_167
*1242 FILLER_29_169
*1243 FILLER_29_179
*1244 FILLER_29_189
*1245 FILLER_29_201
*1246 FILLER_29_213
*1247 FILLER_29_221
*1248 FILLER_29_225
*1249 FILLER_29_237
*1250 FILLER_29_249
*1251 FILLER_29_261
*1252 FILLER_29_27
*1253 FILLER_29_273
*1254 FILLER_29_279
*1255 FILLER_29_281
*1256 FILLER_29_290
*1257 FILLER_29_3
*1258 FILLER_29_302
*1259 FILLER_29_308
*1260 FILLER_29_312
*1261 FILLER_29_324
*1262 FILLER_29_358
*1263 FILLER_29_39
*1264 FILLER_29_51
*1265 FILLER_29_55
*1266 FILLER_29_57
*1267 FILLER_29_62
*1268 FILLER_29_70
*1269 FILLER_29_76
*1270 FILLER_29_83
*1271 FILLER_2_115
*1272 FILLER_2_127
*1273 FILLER_2_139
*1274 FILLER_2_141
*1275 FILLER_2_15
*1276 FILLER_2_153
*1277 FILLER_2_178
*1278 FILLER_2_185
*1279 FILLER_2_193
*1280 FILLER_2_197
*1281 FILLER_2_209
*1282 FILLER_2_21
*1283 FILLER_2_221
*1284 FILLER_2_233
*1285 FILLER_2_245
*1286 FILLER_2_251
*1287 FILLER_2_253
*1288 FILLER_2_265
*1289 FILLER_2_27
*1290 FILLER_2_277
*1291 FILLER_2_289
*1292 FILLER_2_29
*1293 FILLER_2_3
*1294 FILLER_2_301
*1295 FILLER_2_307
*1296 FILLER_2_309
*1297 FILLER_2_321
*1298 FILLER_2_333
*1299 FILLER_2_360
*1300 FILLER_2_41
*1301 FILLER_2_53
*1302 FILLER_2_65
*1303 FILLER_2_77
*1304 FILLER_2_83
*1305 FILLER_2_85
*1306 FILLER_2_93
*1307 FILLER_30_120
*1308 FILLER_30_132
*1309 FILLER_30_141
*1310 FILLER_30_15
*1311 FILLER_30_153
*1312 FILLER_30_165
*1313 FILLER_30_172
*1314 FILLER_30_182
*1315 FILLER_30_192
*1316 FILLER_30_197
*1317 FILLER_30_209
*1318 FILLER_30_221
*1319 FILLER_30_233
*1320 FILLER_30_245
*1321 FILLER_30_251
*1322 FILLER_30_253
*1323 FILLER_30_265
*1324 FILLER_30_27
*1325 FILLER_30_277
*1326 FILLER_30_29
*1327 FILLER_30_3
*1328 FILLER_30_304
*1329 FILLER_30_309
*1330 FILLER_30_321
*1331 FILLER_30_329
*1332 FILLER_30_335
*1333 FILLER_30_342
*1334 FILLER_30_351
*1335 FILLER_30_358
*1336 FILLER_30_41
*1337 FILLER_30_48
*1338 FILLER_30_77
*1339 FILLER_30_83
*1340 FILLER_30_88
*1341 FILLER_30_95
*1342 FILLER_31_101
*1343 FILLER_31_108
*1344 FILLER_31_116
*1345 FILLER_31_128
*1346 FILLER_31_140
*1347 FILLER_31_15
*1348 FILLER_31_152
*1349 FILLER_31_164
*1350 FILLER_31_169
*1351 FILLER_31_177
*1352 FILLER_31_187
*1353 FILLER_31_197
*1354 FILLER_31_209
*1355 FILLER_31_221
*1356 FILLER_31_225
*1357 FILLER_31_237
*1358 FILLER_31_249
*1359 FILLER_31_254
*1360 FILLER_31_266
*1361 FILLER_31_27
*1362 FILLER_31_278
*1363 FILLER_31_281
*1364 FILLER_31_293
*1365 FILLER_31_3
*1366 FILLER_31_305
*1367 FILLER_31_317
*1368 FILLER_31_329
*1369 FILLER_31_335
*1370 FILLER_31_337
*1371 FILLER_31_360
*1372 FILLER_31_39
*1373 FILLER_31_51
*1374 FILLER_31_55
*1375 FILLER_31_60
*1376 FILLER_31_72
*1377 FILLER_32_104
*1378 FILLER_32_129
*1379 FILLER_32_137
*1380 FILLER_32_141
*1381 FILLER_32_15
*1382 FILLER_32_153
*1383 FILLER_32_161
*1384 FILLER_32_169
*1385 FILLER_32_183
*1386 FILLER_32_195
*1387 FILLER_32_197
*1388 FILLER_32_209
*1389 FILLER_32_221
*1390 FILLER_32_233
*1391 FILLER_32_245
*1392 FILLER_32_251
*1393 FILLER_32_253
*1394 FILLER_32_27
*1395 FILLER_32_276
*1396 FILLER_32_288
*1397 FILLER_32_29
*1398 FILLER_32_3
*1399 FILLER_32_300
*1400 FILLER_32_304
*1401 FILLER_32_330
*1402 FILLER_32_342
*1403 FILLER_32_354
*1404 FILLER_32_362
*1405 FILLER_32_41
*1406 FILLER_32_53
*1407 FILLER_32_65
*1408 FILLER_32_77
*1409 FILLER_32_83
*1410 FILLER_32_85
*1411 FILLER_32_89
*1412 FILLER_32_93
*1413 FILLER_33_101
*1414 FILLER_33_109
*1415 FILLER_33_113
*1416 FILLER_33_125
*1417 FILLER_33_137
*1418 FILLER_33_149
*1419 FILLER_33_15
*1420 FILLER_33_164
*1421 FILLER_33_169
*1422 FILLER_33_182
*1423 FILLER_33_192
*1424 FILLER_33_204
*1425 FILLER_33_216
*1426 FILLER_33_225
*1427 FILLER_33_237
*1428 FILLER_33_249
*1429 FILLER_33_255
*1430 FILLER_33_259
*1431 FILLER_33_27
*1432 FILLER_33_271
*1433 FILLER_33_279
*1434 FILLER_33_281
*1435 FILLER_33_292
*1436 FILLER_33_3
*1437 FILLER_33_317
*1438 FILLER_33_329
*1439 FILLER_33_335
*1440 FILLER_33_337
*1441 FILLER_33_349
*1442 FILLER_33_361
*1443 FILLER_33_39
*1444 FILLER_33_51
*1445 FILLER_33_55
*1446 FILLER_33_57
*1447 FILLER_33_69
*1448 FILLER_33_77
*1449 FILLER_33_82
*1450 FILLER_33_89
*1451 FILLER_34_109
*1452 FILLER_34_121
*1453 FILLER_34_133
*1454 FILLER_34_139
*1455 FILLER_34_141
*1456 FILLER_34_15
*1457 FILLER_34_153
*1458 FILLER_34_165
*1459 FILLER_34_173
*1460 FILLER_34_181
*1461 FILLER_34_193
*1462 FILLER_34_197
*1463 FILLER_34_209
*1464 FILLER_34_221
*1465 FILLER_34_233
*1466 FILLER_34_245
*1467 FILLER_34_251
*1468 FILLER_34_253
*1469 FILLER_34_265
*1470 FILLER_34_27
*1471 FILLER_34_277
*1472 FILLER_34_289
*1473 FILLER_34_29
*1474 FILLER_34_295
*1475 FILLER_34_299
*1476 FILLER_34_3
*1477 FILLER_34_307
*1478 FILLER_34_312
*1479 FILLER_34_324
*1480 FILLER_34_336
*1481 FILLER_34_348
*1482 FILLER_34_360
*1483 FILLER_34_41
*1484 FILLER_34_53
*1485 FILLER_34_65
*1486 FILLER_34_77
*1487 FILLER_34_83
*1488 FILLER_34_85
*1489 FILLER_34_97
*1490 FILLER_35_105
*1491 FILLER_35_111
*1492 FILLER_35_113
*1493 FILLER_35_125
*1494 FILLER_35_137
*1495 FILLER_35_149
*1496 FILLER_35_15
*1497 FILLER_35_161
*1498 FILLER_35_167
*1499 FILLER_35_169
*1500 FILLER_35_181
*1501 FILLER_35_193
*1502 FILLER_35_205
*1503 FILLER_35_217
*1504 FILLER_35_223
*1505 FILLER_35_225
*1506 FILLER_35_237
*1507 FILLER_35_249
*1508 FILLER_35_261
*1509 FILLER_35_27
*1510 FILLER_35_273
*1511 FILLER_35_279
*1512 FILLER_35_281
*1513 FILLER_35_293
*1514 FILLER_35_3
*1515 FILLER_35_305
*1516 FILLER_35_317
*1517 FILLER_35_329
*1518 FILLER_35_335
*1519 FILLER_35_337
*1520 FILLER_35_349
*1521 FILLER_35_361
*1522 FILLER_35_39
*1523 FILLER_35_51
*1524 FILLER_35_55
*1525 FILLER_35_57
*1526 FILLER_35_69
*1527 FILLER_35_81
*1528 FILLER_35_93
*1529 FILLER_36_109
*1530 FILLER_36_121
*1531 FILLER_36_133
*1532 FILLER_36_139
*1533 FILLER_36_141
*1534 FILLER_36_15
*1535 FILLER_36_153
*1536 FILLER_36_165
*1537 FILLER_36_177
*1538 FILLER_36_189
*1539 FILLER_36_195
*1540 FILLER_36_197
*1541 FILLER_36_209
*1542 FILLER_36_221
*1543 FILLER_36_233
*1544 FILLER_36_245
*1545 FILLER_36_251
*1546 FILLER_36_253
*1547 FILLER_36_265
*1548 FILLER_36_27
*1549 FILLER_36_277
*1550 FILLER_36_289
*1551 FILLER_36_29
*1552 FILLER_36_3
*1553 FILLER_36_301
*1554 FILLER_36_307
*1555 FILLER_36_309
*1556 FILLER_36_321
*1557 FILLER_36_333
*1558 FILLER_36_345
*1559 FILLER_36_357
*1560 FILLER_36_363
*1561 FILLER_36_41
*1562 FILLER_36_53
*1563 FILLER_36_65
*1564 FILLER_36_77
*1565 FILLER_36_83
*1566 FILLER_36_85
*1567 FILLER_36_97
*1568 FILLER_37_105
*1569 FILLER_37_111
*1570 FILLER_37_113
*1571 FILLER_37_125
*1572 FILLER_37_137
*1573 FILLER_37_149
*1574 FILLER_37_15
*1575 FILLER_37_161
*1576 FILLER_37_167
*1577 FILLER_37_169
*1578 FILLER_37_181
*1579 FILLER_37_193
*1580 FILLER_37_205
*1581 FILLER_37_217
*1582 FILLER_37_223
*1583 FILLER_37_225
*1584 FILLER_37_237
*1585 FILLER_37_249
*1586 FILLER_37_261
*1587 FILLER_37_27
*1588 FILLER_37_273
*1589 FILLER_37_279
*1590 FILLER_37_281
*1591 FILLER_37_293
*1592 FILLER_37_3
*1593 FILLER_37_305
*1594 FILLER_37_317
*1595 FILLER_37_321
*1596 FILLER_37_325
*1597 FILLER_37_333
*1598 FILLER_37_337
*1599 FILLER_37_360
*1600 FILLER_37_39
*1601 FILLER_37_51
*1602 FILLER_37_55
*1603 FILLER_37_57
*1604 FILLER_37_69
*1605 FILLER_37_81
*1606 FILLER_37_93
*1607 FILLER_38_109
*1608 FILLER_38_121
*1609 FILLER_38_133
*1610 FILLER_38_139
*1611 FILLER_38_141
*1612 FILLER_38_15
*1613 FILLER_38_153
*1614 FILLER_38_165
*1615 FILLER_38_177
*1616 FILLER_38_189
*1617 FILLER_38_195
*1618 FILLER_38_197
*1619 FILLER_38_207
*1620 FILLER_38_219
*1621 FILLER_38_231
*1622 FILLER_38_243
*1623 FILLER_38_251
*1624 FILLER_38_253
*1625 FILLER_38_265
*1626 FILLER_38_27
*1627 FILLER_38_277
*1628 FILLER_38_289
*1629 FILLER_38_29
*1630 FILLER_38_3
*1631 FILLER_38_301
*1632 FILLER_38_307
*1633 FILLER_38_309
*1634 FILLER_38_315
*1635 FILLER_38_344
*1636 FILLER_38_351
*1637 FILLER_38_363
*1638 FILLER_38_41
*1639 FILLER_38_53
*1640 FILLER_38_65
*1641 FILLER_38_77
*1642 FILLER_38_83
*1643 FILLER_38_85
*1644 FILLER_38_97
*1645 FILLER_39_105
*1646 FILLER_39_111
*1647 FILLER_39_113
*1648 FILLER_39_125
*1649 FILLER_39_137
*1650 FILLER_39_149
*1651 FILLER_39_15
*1652 FILLER_39_161
*1653 FILLER_39_167
*1654 FILLER_39_169
*1655 FILLER_39_175
*1656 FILLER_39_179
*1657 FILLER_39_189
*1658 FILLER_39_195
*1659 FILLER_39_202
*1660 FILLER_39_212
*1661 FILLER_39_225
*1662 FILLER_39_237
*1663 FILLER_39_249
*1664 FILLER_39_261
*1665 FILLER_39_27
*1666 FILLER_39_273
*1667 FILLER_39_279
*1668 FILLER_39_281
*1669 FILLER_39_293
*1670 FILLER_39_3
*1671 FILLER_39_305
*1672 FILLER_39_332
*1673 FILLER_39_337
*1674 FILLER_39_360
*1675 FILLER_39_39
*1676 FILLER_39_51
*1677 FILLER_39_55
*1678 FILLER_39_57
*1679 FILLER_39_69